Circuit: * C:\Users\SAADATI-PC\Documents\LTspiceXVII\Draft1.asc

Direct Newton iteration failed to find .op point.  (Use ".option noopiter" to skip.)
Starting Gmin stepping
Gmin = 10
Gmin = 1.07374
Gmin = 0.115292
Gmin = 0.0123794
Gmin = 0.00132923
vernier = 0.5
vernier = 0.25
Gmin = 0.000278759
vernier = 0.125
vernier = 0.0625
vernier = 0.03125
vernier = 0.015625
vernier = 0.0078125
vernier = 0.00390625
vernier = 0.00195313
vernier = 0.000976563
vernier = 0.000488281
Gmin = 0
Gmin = 0
Gmin stepping failed

Starting source stepping with srcstepmethod=0
Source Step = 3.0303%
Source Step = 33.3333%
Source Step = 51.5625%
vernier = 0.00390625
Starting source stepping with srcstepmethod=1
Source Step = 3.0303%
Source Step = 28.0303%
Source Step = 28.998%
Source stepping failed

Pseudo Transient failed in finding the operating point at 8.22617 µs.
Trouble finding operating point....skipping operating point for Transient analysis.
Ignoring empty pin current: Ix(u1:vcc)
Ignoring empty pin current: Ix(u2:vcc)
Ignoring empty pin current: Ix(u3:vcc)
Ignoring empty pin current: Ix(u4:vcc)
Ignoring empty pin current: Ix(u5:vcc)

Date: Fri Apr 09 21:32:09 2021
Total elapsed time: 1.019 seconds.

tnom = 27
temp = 27
method = modified trap
totiter = 67327
traniter = 582
tranpoints = 217
accept = 165
rejected = 1547
matrix size = 45
fillins = 5
solver = Normal
Matrix Compiler1: 1.13 KB object code size  1.1/0.6/[0.3]
Matrix Compiler2: off  [0.7]/1.6/1.0

