Circuit: * C:\Users\SAADATI-PC\Documents\LTspiceXVII\Draft3.asc

Direct Newton iteration failed to find .op point.  (Use ".option noopiter" to skip.)
Starting Gmin stepping
Gmin = 10
Gmin = 1.07374
Gmin = 0.115292
Gmin = 0.0123794
Gmin = 0.00132923
Gmin = 0.000142725
Gmin = 1.5325e-005
Gmin = 1.6455e-006
vernier = 0.5
vernier = 0.25
vernier = 0.125
vernier = 0.0625
vernier = 0.03125
vernier = 0.015625
vernier = 0.0078125
vernier = 0.00390625
vernier = 0.00195313
Gmin = 1.6455e-006
vernier = 0.000976563
vernier = 0.000488281
Gmin = 0
Gmin stepping failed

Starting source stepping with srcstepmethod=0
Source Step = 3.0303%
Source Step = 33.3333%
Source Step = 54.7348%
vernier = 0.015625
Source Step = 54.5691%
Starting source stepping with srcstepmethod=1
Source Step = 3.0303%
Source Step = 33.3333%
vernier = 0.25
Source stepping failed

Pseudo Transient failed in finding the operating point at 182.655 ms.
Trouble finding operating point....skipping operating point for Transient analysis.
Ignoring empty pin current: Ix(u1:vcc)

Date: Fri Apr 09 22:28:40 2021
Total elapsed time: 1.518 seconds.

tnom = 27
temp = 27
method = modified trap
totiter = 158870
traniter = 21086
tranpoints = 10321
accept = 10251
rejected = 3568
matrix size = 14
fillins = 1
solver = Normal
Matrix Compiler1: 402 bytes object code size  0.4/0.3/[0.2]
Matrix Compiler2: 796 bytes object code size  0.3/0.6/[0.3]

